# created with PyMOL 2.5.3
@<TRIPOS>MOLECULE
LG2
30 33 1                 
SMALL
USER_CHARGES
@<TRIPOS>ATOM
1	   C	7.949	-29.313	60.492	C.2	1	UNK0	0.000	
2	   C	7.901	-28.888	61.763	C.2	1	UNK0	0.000	
3	   C	7.054	-27.905	62.105	C.2	1	UNK0	0.000	
4	   C	6.258	-27.346	61.177	C.2	1	UNK0	0.000	
5	   C	6.317	-27.757	59.899	C.2	1	UNK0	0.000	
6	   C	7.161	-28.750	59.561	C.2	1	UNK0	0.000	
7	   N	5.438	-26.436	61.521	N.2	1	UNK0	0.000	
8	   C	4.761	-25.700	60.730	C.2	1	UNK0	0.000	
9	   C	4.779	-26.095	59.439	C.2	1	UNK0	0.000	
10	   C	5.526	-27.138	58.980	C.2	1	UNK0	0.000	
11	   O	5.492	-27.447	57.805	O.2	1	UNK0	0.000	
12	   H	5.635	-26.057	62.477	 H	1	UNK0	0.000	
13	   C	4.074	-24.632	61.214	C.2	1	UNK0	0.000	
14	   C	3.113	-24.019	60.497	C.2	1	UNK0	0.000	
15	   C	2.442	-22.969	60.987	C.2	1	UNK0	0.000	
16	   C	2.660	-22.445	62.207	C.2	1	UNK0	0.000	
17	   C	3.623	-23.029	62.962	C.2	1	UNK0	0.000	
18	   C	4.280	-24.087	62.433	C.2	1	UNK0	0.000	
19	   O	1.868	-21.364	62.535	O.3	1	UNK0	0.000	
20	   C	2.392	-20.064	62.690	C.3	1	UNK0	0.000	
21	   C	1.946	-19.122	61.585	C.2	1	UNK0	0.000	
22	   C	1.339	-19.618	60.493	C.2	1	UNK0	0.000	
23	   C	0.909	-18.863	59.462	C.2	1	UNK0	0.000	
24	   C	1.124	-17.537	59.570	C.2	1	UNK0	0.000	
25	   C	1.728	-17.007	60.645	C.2	1	UNK0	0.000	
26	   C	2.139	-17.794	61.648	C.2	1	UNK0	0.000	
27	   O	0.305	-19.486	58.396	O.3	1	UNK0	0.000	
28	   C	-1.078	-19.306	58.199	C.3	1	UNK0	0.000	
29	   O	3.897	-22.540	64.217	O.3	1	UNK0	0.000	
30	   C	5.087	-21.833	64.477	C.3	1	UNK0	0.000	
@<TRIPOS>BOND
1 1 2 ar
2 1 6 ar
3 2 3 ar
4 3 4 ar
5 4 5 ar
6 4 7 ar
7 5 6 ar
8 5 10 ar
9 7 8 ar
10 7 12 1
11 8 9 ar
12 8 13 1
13 9 10 ar
14 10 11 2
15 13 14 ar
16 13 18 ar
17 14 15 ar
18 15 16 ar
19 16 17 ar
20 16 19 1
21 17 18 ar
22 17 29 1
23 19 20 1
24 20 21 1
25 21 22 ar
26 21 26 ar
27 22 23 ar
28 23 24 ar
29 23 27 1
30 24 25 ar
31 25 26 ar
32 27 28 1
33 29 30 1
@<TRIPOS>SUBSTRUCTURE
1	UNK0	1	GROUP	1 ****	UNK
