# created with PyMOL 2.5.3
@<TRIPOS>MOLECULE
obj01
23 25 1                 
SMALL
USER_CHARGES
@<TRIPOS>ATOM
1	   C	1.088	-26.761	55.154	C.2	1	UNK0	0.000	
2	   C	0.369	-25.629	55.112	C.2	1	UNK0	0.000	
3	   C	0.546	-24.697	56.059	C.2	1	UNK0	0.000	
4	   C	1.432	-24.904	57.049	C.2	1	UNK0	0.000	
5	   C	2.141	-26.039	57.109	C.2	1	UNK0	0.000	
6	   C	1.967	-26.967	56.148	C.2	1	UNK0	0.000	
7	   N	1.629	-24.007	57.922	N.2	1	UNK0	0.000	
8	   C	2.303	-24.100	59.002	C.2	1	UNK0	0.000	
9	   C	3.025	-25.248	59.134	C.2	1	UNK0	0.000	
10	   C	2.990	-26.213	58.159	C.2	1	UNK0	0.000	
11	   O	3.661	-27.225	58.234	O.2	1	UNK0	0.000	
12	   C	3.819	-25.647	60.372	C.3	1	UNK0	0.000	
13	  HN	0.895	-23.267	57.861	 H	1	UNK0	0.000	
14	   C	2.207	-23.040	59.856	C.2	1	UNK0	0.000	
15	   C	1.762	-23.158	61.125	C.2	1	UNK0	0.000	
16	   C	1.675	-22.112	61.956	C.2	1	UNK0	0.000	
17	   C	1.985	-20.852	61.606	C.2	1	UNK0	0.000	
18	   C	2.428	-20.671	60.338	C.2	1	UNK0	0.000	
19	   C	2.488	-21.759	59.536	C.2	1	UNK0	0.000	
20	   O	1.862	-19.891	62.586	O.3	1	UNK0	0.000	
21	   C	2.932	-19.607	63.455	C.3	1	UNK0	0.000	
22	   O	2.726	-19.401	59.903	O.3	1	UNK0	0.000	
23	   C	1.706	-18.522	59.488	C.3	1	UNK0	0.000	
@<TRIPOS>BOND
1 1 2 ar
2 1 6 ar
3 2 3 ar
4 3 4 ar
5 4 5 ar
6 4 7 ar
7 5 6 ar
8 5 10 ar
9 7 8 ar
10 7 13 1
11 8 9 ar
12 8 14 1
13 9 10 ar
14 9 12 1
15 10 11 2
16 14 15 ar
17 14 19 ar
18 15 16 ar
19 16 17 ar
20 17 18 ar
21 17 20 1
22 18 19 ar
23 18 22 1
24 20 21 1
25 22 23 1
@<TRIPOS>SUBSTRUCTURE
1	UNK0	1	GROUP	1 ****	UNK
