# created with PyMOL 2.5.3
@<TRIPOS>MOLECULE
LG1
22 24 1                 
SMALL
USER_CHARGES
@<TRIPOS>ATOM
1	   C	7.446	-26.103	59.920	C.2	1	UNK0	0.000	
2	   C	7.311	-25.070	60.765	C.2	1	UNK0	0.000	
3	   C	7.193	-25.297	62.082	C.2	1	UNK0	0.000	
4	   C	7.207	-26.555	62.555	C.2	1	UNK0	0.000	
5	   C	7.322	-27.594	61.709	C.2	1	UNK0	0.000	
6	   C	7.450	-27.361	60.389	C.2	1	UNK0	0.000	
7	   N	7.125	-26.755	63.808	N.2	1	UNK0	0.000	
8	   C	6.944	-27.881	64.378	C.2	1	UNK0	0.000	
9	   C	7.074	-28.951	63.563	C.2	1	UNK0	0.000	
10	   C	7.290	-28.854	62.221	C.2	1	UNK0	0.000	
11	   O	7.405	-29.857	61.545	O.2	1	UNK0	0.000	
12	   H	6.825	-25.900	64.333	 H	1	UNK0	0.000	
13	   C	6.674	-27.937	65.708	C.2	1	UNK0	0.000	
14	   C	7.653	-27.997	66.632	C.2	1	UNK0	0.000	
15	   C	7.375	-28.060	67.939	C.2	1	UNK0	0.000	
16	   C	6.125	-28.079	68.436	C.2	1	UNK0	0.000	
17	   C	5.109	-27.990	67.541	C.2	1	UNK0	0.000	
18	   C	5.429	-27.941	66.228	C.2	1	UNK0	0.000	
19	   O	6.014	-28.124	69.809	O.3	1	UNK0	0.000	
20	   C	5.958	-29.355	70.488	C.3	1	UNK0	0.000	
21	   O	3.809	-28.006	67.993	O.3	1	UNK0	0.000	
22	   C	2.856	-28.864	67.410	C.3	1	UNK0	0.000	
@<TRIPOS>BOND
1 1 2 ar
2 1 6 ar
3 2 3 ar
4 3 4 ar
5 4 5 ar
6 4 7 ar
7 5 6 ar
8 5 10 ar
9 7 8 ar
10 7 12 1
11 8 9 ar
12 8 13 1
13 9 10 ar
14 10 11 2
15 13 14 ar
16 13 18 ar
17 14 15 ar
18 15 16 ar
19 16 17 ar
20 16 19 1
21 17 18 ar
22 17 21 1
23 19 20 1
24 21 22 1
@<TRIPOS>SUBSTRUCTURE
1	UNK0	1	GROUP	1 ****	UNK

# created with PyMOL 2.5.3
@<TRIPOS>MOLECULE
LG2
30 33 1                 
SMALL
USER_CHARGES
@<TRIPOS>ATOM
1	   C	7.949	-29.313	60.492	C.2	1	UNK0	0.000	
2	   C	7.901	-28.888	61.763	C.2	1	UNK0	0.000	
3	   C	7.054	-27.905	62.105	C.2	1	UNK0	0.000	
4	   C	6.258	-27.346	61.177	C.2	1	UNK0	0.000	
5	   C	6.317	-27.757	59.899	C.2	1	UNK0	0.000	
6	   C	7.161	-28.750	59.561	C.2	1	UNK0	0.000	
7	   N	5.438	-26.436	61.521	N.2	1	UNK0	0.000	
8	   C	4.761	-25.700	60.730	C.2	1	UNK0	0.000	
9	   C	4.779	-26.095	59.439	C.2	1	UNK0	0.000	
10	   C	5.526	-27.138	58.980	C.2	1	UNK0	0.000	
11	   O	5.492	-27.447	57.805	O.2	1	UNK0	0.000	
12	   H	5.635	-26.057	62.477	 H	1	UNK0	0.000	
13	   C	4.074	-24.632	61.214	C.2	1	UNK0	0.000	
14	   C	3.113	-24.019	60.497	C.2	1	UNK0	0.000	
15	   C	2.442	-22.969	60.987	C.2	1	UNK0	0.000	
16	   C	2.660	-22.445	62.207	C.2	1	UNK0	0.000	
17	   C	3.623	-23.029	62.962	C.2	1	UNK0	0.000	
18	   C	4.280	-24.087	62.433	C.2	1	UNK0	0.000	
19	   O	1.868	-21.364	62.535	O.3	1	UNK0	0.000	
20	   C	2.392	-20.064	62.690	C.3	1	UNK0	0.000	
21	   C	1.946	-19.122	61.585	C.2	1	UNK0	0.000	
22	   C	1.339	-19.618	60.493	C.2	1	UNK0	0.000	
23	   C	0.909	-18.863	59.462	C.2	1	UNK0	0.000	
24	   C	1.124	-17.537	59.570	C.2	1	UNK0	0.000	
25	   C	1.728	-17.007	60.645	C.2	1	UNK0	0.000	
26	   C	2.139	-17.794	61.648	C.2	1	UNK0	0.000	
27	   O	0.305	-19.486	58.396	O.3	1	UNK0	0.000	
28	   C	-1.078	-19.306	58.199	C.3	1	UNK0	0.000	
29	   O	3.897	-22.540	64.217	O.3	1	UNK0	0.000	
30	   C	5.087	-21.833	64.477	C.3	1	UNK0	0.000	
@<TRIPOS>BOND
1 1 2 ar
2 1 6 ar
3 2 3 ar
4 3 4 ar
5 4 5 ar
6 4 7 ar
7 5 6 ar
8 5 10 ar
9 7 8 ar
10 7 12 1
11 8 9 ar
12 8 13 1
13 9 10 ar
14 10 11 2
15 13 14 ar
16 13 18 ar
17 14 15 ar
18 15 16 ar
19 16 17 ar
20 16 19 1
21 17 18 ar
22 17 29 1
23 19 20 1
24 20 21 1
25 21 22 ar
26 21 26 ar
27 22 23 ar
28 23 24 ar
29 23 27 1
30 24 25 ar
31 25 26 ar
32 27 28 1
33 29 30 1
@<TRIPOS>SUBSTRUCTURE
1	UNK0	1	GROUP	1 ****	UNK

# created with PyMOL 2.5.3
@<TRIPOS>MOLECULE
LG3
23 25 1                 
SMALL
USER_CHARGES
@<TRIPOS>ATOM
1	   C	1.088	-26.761	55.154	C.2	1	UNK0	0.000	
2	   C	0.369	-25.629	55.112	C.2	1	UNK0	0.000	
3	   C	0.546	-24.697	56.059	C.2	1	UNK0	0.000	
4	   C	1.432	-24.904	57.049	C.2	1	UNK0	0.000	
5	   C	2.141	-26.039	57.109	C.2	1	UNK0	0.000	
6	   C	1.967	-26.967	56.148	C.2	1	UNK0	0.000	
7	   N	1.629	-24.007	57.922	N.2	1	UNK0	0.000	
8	   C	2.303	-24.100	59.002	C.2	1	UNK0	0.000	
9	   C	3.025	-25.248	59.134	C.2	1	UNK0	0.000	
10	   C	2.990	-26.213	58.159	C.2	1	UNK0	0.000	
11	   O	3.661	-27.225	58.234	O.2	1	UNK0	0.000	
12	   C	3.819	-25.647	60.372	C.3	1	UNK0	0.000	
13	  HN	0.895	-23.267	57.861	 H	1	UNK0	0.000	
14	   C	2.207	-23.040	59.856	C.2	1	UNK0	0.000	
15	   C	1.762	-23.158	61.125	C.2	1	UNK0	0.000	
16	   C	1.675	-22.112	61.956	C.2	1	UNK0	0.000	
17	   C	1.985	-20.852	61.606	C.2	1	UNK0	0.000	
18	   C	2.428	-20.671	60.338	C.2	1	UNK0	0.000	
19	   C	2.488	-21.759	59.536	C.2	1	UNK0	0.000	
20	   O	1.862	-19.891	62.586	O.3	1	UNK0	0.000	
21	   C	2.932	-19.607	63.455	C.3	1	UNK0	0.000	
22	   O	2.726	-19.401	59.903	O.3	1	UNK0	0.000	
23	   C	1.706	-18.522	59.488	C.3	1	UNK0	0.000	
@<TRIPOS>BOND
1 1 2 ar
2 1 6 ar
3 2 3 ar
4 3 4 ar
5 4 5 ar
6 4 7 ar
7 5 6 ar
8 5 10 ar
9 7 8 ar
10 7 13 1
11 8 9 ar
12 8 14 1
13 9 10 ar
14 9 12 1
15 10 11 2
16 14 15 ar
17 14 19 ar
18 15 16 ar
19 16 17 ar
20 17 18 ar
21 17 20 1
22 18 19 ar
23 18 22 1
24 20 21 1
25 22 23 1
@<TRIPOS>SUBSTRUCTURE
1	UNK0	1	GROUP	1 ****	UNK

# created with PyMOL 2.5.3
@<TRIPOS>MOLECULE
LG4
30 33 1                 
SMALL
USER_CHARGES
@<TRIPOS>ATOM
1	   C	2.457	-26.825	56.637	C.2	1	UNK0	0.000	
2	   C	1.972	-25.820	55.896	C.2	1	UNK0	0.000	
3	   C	1.744	-24.632	56.471	C.2	1	UNK0	0.000	
4	   C	2.004	-24.441	57.776	C.2	1	UNK0	0.000	
5	   C	2.540	-25.429	58.523	C.2	1	UNK0	0.000	
6	   C	2.738	-26.626	57.934	C.2	1	UNK0	0.000	
7	   N	1.709	-23.300	58.249	N.pl3	1	UNK0	0.000	
8	   C	1.787	-22.964	59.679	C.3	1	UNK0	0.000	
9	   C	2.846	-23.807	60.388	C.3	1	UNK0	0.000	
10	   C	2.902	-25.202	59.805	C.3	1	UNK0	0.000	
11	   H	1.303	-22.590	57.592	 H	1	UNK0	0.000	
12	   N	3.394	-26.111	60.538	N.3	1	UNK0	0.000	
13	   O	4.400	-25.913	61.370	O.3	1	UNK0	0.000	
14	   C	5.634	-25.717	60.710	C.3	1	UNK0	0.000	
15	   C	6.327	-27.045	60.502	C.2	1	UNK0	0.000	
16	   C	7.204	-27.541	61.391	C.2	1	UNK0	0.000	
17	   C	7.780	-28.725	61.136	C.2	1	UNK0	0.000	
18	   C	7.450	-29.360	59.999	C.2	1	UNK0	0.000	
19	   N	6.626	-28.903	59.154	N.2	1	UNK0	0.000	
20	   C	6.087	-27.784	59.403	C.2	1	UNK0	0.000	
21	   C	2.015	-21.480	59.854	C.2	1	UNK0	0.000	
22	   C	1.508	-20.591	58.989	C.2	1	UNK0	0.000	
23	   C	1.735	-19.286	59.181	C.2	1	UNK0	0.000	
24	   C	2.463	-18.801	60.208	C.2	1	UNK0	0.000	
25	   C	2.953	-19.689	61.111	C.2	1	UNK0	0.000	
26	   C	2.722	-21.001	60.890	C.2	1	UNK0	0.000	
27	   O	2.578	-17.428	60.267	O.3	1	UNK0	0.000	
28	   C	1.443	-16.619	60.458	C.3	1	UNK0	0.000	
29	   O	3.699	-19.242	62.177	O.3	1	UNK0	0.000	
30	   C	4.258	-20.163	63.083	C.3	1	UNK0	0.000	
@<TRIPOS>BOND
1 1 2 ar
2 1 6 ar
3 2 3 ar
4 3 4 ar
5 4 5 ar
6 4 7 1
7 5 6 ar
8 5 10 1
9 7 8 1
10 7 11 1
11 8 9 1
12 8 21 1
13 9 10 1
14 10 12 1
15 12 13 1
16 13 14 1
17 14 15 1
18 15 16 ar
19 15 20 ar
20 16 17 ar
21 17 18 ar
22 18 19 ar
23 19 20 ar
24 21 22 ar
25 21 26 ar
26 22 23 ar
27 23 24 ar
28 24 25 ar
29 24 27 1
30 25 26 ar
31 25 29 1
32 27 28 1
33 29 30 1
@<TRIPOS>SUBSTRUCTURE
1	UNK0	1	GROUP	1 ****	UNK
# created with PyMOL 2.5.3
