# created with PyMOL 2.5.3
@<TRIPOS>MOLECULE
obj01
30 33 1                 
SMALL
USER_CHARGES
@<TRIPOS>ATOM
1	   C	2.457	-26.825	56.637	C.2	1	UNK0	0.000	
2	   C	1.972	-25.820	55.896	C.2	1	UNK0	0.000	
3	   C	1.744	-24.632	56.471	C.2	1	UNK0	0.000	
4	   C	2.004	-24.441	57.776	C.2	1	UNK0	0.000	
5	   C	2.540	-25.429	58.523	C.2	1	UNK0	0.000	
6	   C	2.738	-26.626	57.934	C.2	1	UNK0	0.000	
7	   N	1.709	-23.300	58.249	N.pl3	1	UNK0	0.000	
8	   C	1.787	-22.964	59.679	C.3	1	UNK0	0.000	
9	   C	2.846	-23.807	60.388	C.3	1	UNK0	0.000	
10	   C	2.902	-25.202	59.805	C.3	1	UNK0	0.000	
11	   H	1.303	-22.590	57.592	 H	1	UNK0	0.000	
12	   N	3.394	-26.111	60.538	N.3	1	UNK0	0.000	
13	   O	4.400	-25.913	61.370	O.3	1	UNK0	0.000	
14	   C	5.634	-25.717	60.710	C.3	1	UNK0	0.000	
15	   C	6.327	-27.045	60.502	C.2	1	UNK0	0.000	
16	   C	7.204	-27.541	61.391	C.2	1	UNK0	0.000	
17	   C	7.780	-28.725	61.136	C.2	1	UNK0	0.000	
18	   C	7.450	-29.360	59.999	C.2	1	UNK0	0.000	
19	   N	6.626	-28.903	59.154	N.2	1	UNK0	0.000	
20	   C	6.087	-27.784	59.403	C.2	1	UNK0	0.000	
21	   C	2.015	-21.480	59.854	C.2	1	UNK0	0.000	
22	   C	1.508	-20.591	58.989	C.2	1	UNK0	0.000	
23	   C	1.735	-19.286	59.181	C.2	1	UNK0	0.000	
24	   C	2.463	-18.801	60.208	C.2	1	UNK0	0.000	
25	   C	2.953	-19.689	61.111	C.2	1	UNK0	0.000	
26	   C	2.722	-21.001	60.890	C.2	1	UNK0	0.000	
27	   O	2.578	-17.428	60.267	O.3	1	UNK0	0.000	
28	   C	1.443	-16.619	60.458	C.3	1	UNK0	0.000	
29	   O	3.699	-19.242	62.177	O.3	1	UNK0	0.000	
30	   C	4.258	-20.163	63.083	C.3	1	UNK0	0.000	
@<TRIPOS>BOND
1 1 2 ar
2 1 6 ar
3 2 3 ar
4 3 4 ar
5 4 5 ar
6 4 7 1
7 5 6 ar
8 5 10 1
9 7 8 1
10 7 11 1
11 8 9 1
12 8 21 1
13 9 10 1
14 10 12 1
15 12 13 1
16 13 14 1
17 14 15 1
18 15 16 ar
19 15 20 ar
20 16 17 ar
21 17 18 ar
22 18 19 ar
23 19 20 ar
24 21 22 ar
25 21 26 ar
26 22 23 ar
27 23 24 ar
28 24 25 ar
29 24 27 1
30 25 26 ar
31 25 29 1
32 27 28 1
33 29 30 1
@<TRIPOS>SUBSTRUCTURE
1	UNK0	1	GROUP	1 ****	UNK
# created with PyMOL 2.5.3
@<TRIPOS>MOLECULE
LG1
22 24 1                 
SMALL
USER_CHARGES
@<TRIPOS>ATOM
1	   C	7.446	-26.103	59.920	C.2	1	UNK0	0.000	
2	   C	7.311	-25.070	60.765	C.2	1	UNK0	0.000	
3	   C	7.193	-25.297	62.082	C.2	1	UNK0	0.000	
4	   C	7.207	-26.555	62.555	C.2	1	UNK0	0.000	
5	   C	7.322	-27.594	61.709	C.2	1	UNK0	0.000	
6	   C	7.450	-27.361	60.389	C.2	1	UNK0	0.000	
7	   N	7.125	-26.755	63.808	N.2	1	UNK0	0.000	
8	   C	6.944	-27.881	64.378	C.2	1	UNK0	0.000	
9	   C	7.074	-28.951	63.563	C.2	1	UNK0	0.000	
10	   C	7.290	-28.854	62.221	C.2	1	UNK0	0.000	
11	   O	7.405	-29.857	61.545	O.2	1	UNK0	0.000	
12	   H	6.825	-25.900	64.333	 H	1	UNK0	0.000	
13	   C	6.674	-27.937	65.708	C.2	1	UNK0	0.000	
14	   C	7.653	-27.997	66.632	C.2	1	UNK0	0.000	
15	   C	7.375	-28.060	67.939	C.2	1	UNK0	0.000	
16	   C	6.125	-28.079	68.436	C.2	1	UNK0	0.000	
17	   C	5.109	-27.990	67.541	C.2	1	UNK0	0.000	
18	   C	5.429	-27.941	66.228	C.2	1	UNK0	0.000	
19	   O	6.014	-28.124	69.809	O.3	1	UNK0	0.000	
20	   C	5.958	-29.355	70.488	C.3	1	UNK0	0.000	
21	   O	3.809	-28.006	67.993	O.3	1	UNK0	0.000	
22	   C	2.856	-28.864	67.410	C.3	1	UNK0	0.000	
@<TRIPOS>BOND
1 1 2 ar
2 1 6 ar
3 2 3 ar
4 3 4 ar
5 4 5 ar
6 4 7 ar
7 5 6 ar
8 5 10 ar
9 7 8 ar
10 7 12 1
11 8 9 ar
12 8 13 1
13 9 10 ar
14 10 11 2
15 13 14 ar
16 13 18 ar
17 14 15 ar
18 15 16 ar
19 16 17 ar
20 16 19 1
21 17 18 ar
22 17 21 1
23 19 20 1
24 21 22 1
@<TRIPOS>SUBSTRUCTURE
1	UNK0	1	GROUP	1 ****	UNK
