@<TRIPOS>MOLECULE
 ZINC000343043015
   37    39     0     0     0



@<TRIPOS>ATOM
      1 C1        -19.2359    21.6060   -22.1728 C.3        1  LIG1  -0.1400
      2 C2        -19.7136    20.1540   -22.1056 C.3        1  LIG1  -0.0500
      3 C3        -18.5364    19.2493   -21.8468 C.2        1  LIG1   0.1200
      4 C4        -17.8077    18.7167   -22.8280 C.2        1  LIG1  -0.3000
      5 S1        -16.5419    17.7331   -22.0974 S.3        1  LIG1   0.0900
      6 C5        -17.1159    18.1337   -20.5377 C.2        1  LIG1   0.3200
      7 N1        -16.5638    17.6838   -19.3486 N.pl3      1  LIG1  -0.6900
      8 C6        -17.1450    18.0966   -18.0687 C.3        1  LIG1   0.1100
      9 C7        -16.0656    18.1414   -17.0181 C.2        1  LIG1   0.5400
     10 O1        -15.4412    19.1647   -16.8333 O.2        1  LIG1  -0.5200
     11 N2        -15.7939    17.0443   -16.2838 N.am       1  LIG1  -0.6100
     12 C8        -14.7851    16.9291   -15.2259 C.3        1  LIG1   0.1400
     13 C9        -14.8420    15.5212   -14.6895 C.ar       1  LIG1  -0.1100
     14 C10       -14.1115    14.8940   -13.6953 C.ar       1  LIG1  -0.0900
     15 C11       -14.3576    13.5701   -13.3847 C.ar       1  LIG1  -0.1100
     16 C12       -15.3348    12.8710   -14.0678 C.ar       1  LIG1  -0.1100
     17 C13       -16.0646    13.4967   -15.0606 C.ar       1  LIG1  -0.0900
     18 C14       -15.8185    14.8225   -15.3721 C.ar       1  LIG1  -0.1100
     19 C15       -16.4550    15.7394   -16.3858 C.3        1  LIG1   0.1500
     20 N3        -18.1398    18.9245   -20.6290 N.2        1  LIG1  -0.5400
     21 H1        -20.0873    22.2603   -22.3601 H          1  LIG1   0.0500
     22 H2        -18.7690    21.8790   -21.2265 H          1  LIG1   0.0600
     23 H3        -18.5110    21.7131   -22.9798 H          1  LIG1   0.0600
     24 H4        -20.4385    20.0470   -21.2987 H          1  LIG1   0.0800
     25 H5        -20.1804    19.8809   -23.0520 H          1  LIG1   0.0800
     26 H6        -17.9661    18.8625   -23.8864 H          1  LIG1   0.1800
     27 H7        -15.7927    17.0956   -19.3639 H          1  LIG1   0.4200
     28 H8        -17.5907    19.0857   -18.1742 H          1  LIG1   0.1000
     29 H9        -17.9125    17.3821   -17.7710 H          1  LIG1   0.1000
     30 H10       -13.7951    17.1283   -15.6363 H          1  LIG1   0.0900
     31 H11       -15.0046    17.6379   -14.4275 H          1  LIG1   0.0900
     32 H12       -13.3476    15.4400   -13.1616 H          1  LIG1   0.1300
     33 H13       -13.7865    13.0820   -12.6089 H          1  LIG1   0.1300
     34 H14       -15.5277    11.8363   -13.8261 H          1  LIG1   0.1300
     35 H15       -16.8278    12.9501   -15.5944 H          1  LIG1   0.1300
     36 H16       -17.5188    15.8441   -16.1727 H          1  LIG1   0.0900
     37 H17       -16.3163    15.3347   -17.3884 H          1  LIG1   0.0900
@<TRIPOS>BOND
     1    1    2 1
     2    1   21 1
     3    1   22 1
     4    1   23 1
     5    2    3 1
     6    2   24 1
     7    2   25 1
     8    3   20 1
     9    3    4 2
    10    4    5 1
    11    4   26 1
    12    5    6 1
    13    6    7 1
    14    6   20 2
    15    7    8 1
    16    7   27 1
    17    8    9 1
    18    8   28 1
    19    8   29 1
    20    9   10 2
    21    9   11 am
    22   11   19 1
    23   11   12 1
    24   12   13 1
    25   12   30 1
    26   12   31 1
    27   13   18 ar
    28   13   14 ar
    29   14   15 ar
    30   14   32 1
    31   15   16 ar
    32   15   33 1
    33   16   17 ar
    34   16   34 1
    35   17   18 ar
    36   17   35 1
    37   18   19 1
    38   19   36 1
    39   19   37 1

@<TRIPOS>MOLECULE
 ZINC000065293174
   44    47     0     0     0



@<TRIPOS>ATOM
      1 O1        -16.6371    18.7697   -17.3538 O.2        1  LIG1  -0.4900
      2 C1        -16.9413    17.6904   -17.8160 C.2        1  LIG1   0.5300
      3 C2        -16.7216    16.4364   -17.0096 C.3        1  LIG1  -0.1500
      4 S1        -15.2967    16.6660   -15.9106 S.3        1  LIG1  -0.0300
      5 C3        -15.1969    15.1241   -15.0638 C.ar       1  LIG1  -0.1000
      6 C4        -14.2072    14.9157   -14.1106 C.ar       1  LIG1  -0.1400
      7 C5        -14.1320    13.7060   -13.4490 C.ar       1  LIG1  -0.1000
      8 C6        -15.0401    12.7026   -13.7338 C.ar       1  LIG1  -0.1300
      9 C7        -16.0260    12.9062   -14.6821 C.ar       1  LIG1  -0.1000
     10 C8        -16.1112    14.1154   -15.3433 C.ar       1  LIG1  -0.1000
     11 N1        -17.4809    17.6130   -19.0487 N.am       1  LIG1  -0.5900
     12 C9        -18.4297    16.5401   -19.3911 C.3        1  LIG1   0.1100
     13 C10       -19.7837    17.1606   -19.7569 C.3        1  LIG1  -0.0600
     14 C11       -19.5609    18.3278   -20.6813 C.2        1  LIG1  -0.0300
     15 C12       -18.3816    18.9767   -20.8278 C.2        1  LIG1   0.0100
     16 N2        -18.5568    19.9531   -21.7205 N.2        1  LIG1  -0.4700
     17 C13       -19.7958    19.9370   -22.1373 C.2        1  LIG1   0.1800
     18 N3        -20.4535    18.9341   -21.5109 N.pl3      1  LIG1  -0.5600
     19 C14       -17.1431    18.5962   -20.0779 C.3        1  LIG1   0.2600
     20 C15       -16.4730    19.8349   -19.4572 C.3        1  LIG1  -0.1000
     21 C16       -14.9957    19.4181   -19.2860 C.3        1  LIG1  -0.1300
     22 C17       -14.7418    18.2739   -20.2841 C.3        1  LIG1  -0.1200
     23 C18       -16.0729    18.0329   -21.0292 C.3        1  LIG1  -0.1200
     24 H1        -17.6101    16.2274   -16.4136 H          1  LIG1   0.1100
     25 H2        -16.5305    15.6005   -17.6826 H          1  LIG1   0.1200
     26 H3        -13.4976    15.6987   -13.8879 H          1  LIG1   0.1200
     27 H4        -13.3630    13.5433   -12.7084 H          1  LIG1   0.1300
     28 H5        -14.9789    11.7574   -13.2148 H          1  LIG1   0.1300
     29 H6        -16.7332    12.1202   -14.9022 H          1  LIG1   0.1300
     30 H7        -16.8815    14.2739   -16.0834 H          1  LIG1   0.1300
     31 H8        -18.0478    15.9735   -20.2403 H          1  LIG1   0.0800
     32 H9        -18.5530    15.8762   -18.5354 H          1  LIG1   0.1000
     33 H10       -20.4032    16.4149   -20.2549 H          1  LIG1   0.0900
     34 H11       -20.2834    17.5039   -18.8511 H          1  LIG1   0.0800
     35 H12       -20.2240    20.6129   -22.8627 H          1  LIG1   0.2100
     36 H13       -21.3853    18.6927   -21.6307 H          1  LIG1   0.4200
     37 H14       -16.5532    20.6893   -20.1293 H          1  LIG1   0.0700
     38 H15       -16.9191    20.0657   -18.4898 H          1  LIG1   0.0800
     39 H16       -14.3418    20.2608   -19.5101 H          1  LIG1   0.0500
     40 H17       -14.8216    19.0706   -18.2677 H          1  LIG1   0.1100
     41 H18       -13.9647    18.5618   -20.9922 H          1  LIG1   0.0600
     42 H19       -14.4445    17.3715   -19.7498 H          1  LIG1   0.0600
     43 H20       -16.2311    16.9670   -21.1932 H          1  LIG1   0.0600
     44 H21       -16.0829    18.5715   -21.9767 H          1  LIG1   0.0800
@<TRIPOS>BOND
     1    1    2 2
     2    2    3 1
     3    2   11 am
     4    3    4 1
     5    3   24 1
     6    3   25 1
     7    4    5 1
     8    5   10 ar
     9    5    6 ar
    10    6    7 ar
    11    6   26 1
    12    7    8 ar
    13    7   27 1
    14    8    9 ar
    15    8   28 1
    16    9   10 ar
    17    9   29 1
    18   10   30 1
    19   11   19 1
    20   11   12 1
    21   12   13 1
    22   12   31 1
    23   12   32 1
    24   13   14 1
    25   13   33 1
    26   13   34 1
    27   14   18 1
    28   14   15 2
    29   15   16 1
    30   15   19 1
    31   16   17 2
    32   17   18 1
    33   17   35 1
    34   18   36 1
    35   19   23 1
    36   19   20 1
    37   20   21 1
    38   20   37 1
    39   20   38 1
    40   21   22 1
    41   21   39 1
    42   21   40 1
    43   22   23 1
    44   22   41 1
    45   22   42 1
    46   23   43 1
    47   23   44 1

@<TRIPOS>MOLECULE
 ZINC000575033470
   41    44     0     0     0



@<TRIPOS>ATOM
      1 O1        -18.7952    18.8412   -16.7787 O.2        1  LIG1  -0.5100
      2 C1        -17.9544    18.5360   -17.6020 C.2        1  LIG1   0.5600
      3 N1        -18.3072    17.8358   -18.6981 N.am       1  LIG1  -0.7300
      4 C2        -19.7042    17.4424   -18.8976 C.3        1  LIG1   0.1500
      5 H1        -20.1846    17.3016   -17.9294 H          1  LIG1   0.1000
      6 C3        -19.7587    16.1333   -19.6906 C.3        1  LIG1  -0.1400
      7 C4        -21.1952    15.5991   -19.6982 C.3        1  LIG1   0.1100
      8 N2        -22.0974    16.6771   -20.1098 N.pl3      1  LIG1  -0.4600
      9 C5        -23.3813    16.5672   -20.5544 C.2        1  LIG1  -0.0500
     10 C6        -23.8096    17.8193   -20.8140 C.2        1  LIG1  -0.0300
     11 N3        -22.8082    18.6688   -20.5330 N.2        1  LIG1  -0.4900
     12 C7        -21.7798    17.9934   -20.1105 C.2        1  LIG1   0.2100
     13 C8        -20.4387    18.5390   -19.6792 C.3        1  LIG1  -0.0400
     14 C9        -16.5485    18.9376   -17.4041 C.ar       1  LIG1  -0.1800
     15 C10       -15.9127    19.7545   -18.3418 C.ar       1  LIG1  -0.0500
     16 C11       -14.5992    20.1260   -18.1512 C.ar       1  LIG1  -0.1700
     17 C12       -13.9059    19.6926   -17.0310 C.ar       1  LIG1  -0.0500
     18 C13       -14.5220    18.8845   -16.0985 C.ar       1  LIG1  -0.2200
     19 C14       -15.8448    18.5061   -16.2711 C.ar       1  LIG1   0.1900
     20 O2        -16.4516    17.7122   -15.3538 O.3        1  LIG1  -0.2500
     21 C15       -15.8690    16.4283   -15.1203 C.3        1  LIG1  -0.0100
     22 C16       -16.7622    15.3483   -14.5066 C.3        1  LIG1  -0.1800
     23 C17       -16.3607    15.2624   -15.9804 C.3        1  LIG1  -0.1600
     24 H2        -17.6363    17.5923   -19.3549 H          1  LIG1   0.4000
     25 H3        -19.4334    16.3153   -20.7149 H          1  LIG1   0.0800
     26 H4        -19.1006    15.3993   -19.2256 H          1  LIG1   0.1000
     27 H5        -21.2727    14.7695   -20.4009 H          1  LIG1   0.1000
     28 H6        -21.4640    15.2595   -18.6979 H          1  LIG1   0.0900
     29 H7        -23.9460    15.6545   -20.6753 H          1  LIG1   0.1800
     30 H8        -24.7872    18.0914   -21.1836 H          1  LIG1   0.1700
     31 H9        -20.5842    19.4107   -19.0414 H          1  LIG1   0.1000
     32 H10       -19.8559    18.8182   -20.5570 H          1  LIG1   0.0900
     33 H11       -16.4495    20.0942   -19.2152 H          1  LIG1   0.1300
     34 H12       -14.1084    20.7573   -18.8771 H          1  LIG1   0.1300
     35 H13       -12.8766    19.9889   -16.8919 H          1  LIG1   0.1300
     36 H14       -13.9744    18.5502   -15.2297 H          1  LIG1   0.1400
     37 H15       -14.8172    16.4343   -14.8344 H          1  LIG1   0.1200
     38 H16       -16.2982    14.6435   -13.8166 H          1  LIG1   0.1100
     39 H17       -17.7942    15.6171   -14.2809 H          1  LIG1   0.1100
     40 H18       -17.1286    15.4746   -16.7244 H          1  LIG1   0.1100
     41 H19       -15.6325    14.5011   -16.2601 H          1  LIG1   0.1100
@<TRIPOS>BOND
     1    1    2 2
     2    2    3 am
     3    2   14 1
     4    3    4 1
     5    3   24 1
     6    4    5 1
     7    4   13 1
     8    4    6 1
     9    6    7 1
    10    6   25 1
    11    6   26 1
    12    7    8 1
    13    7   27 1
    14    7   28 1
    15    8   12 1
    16    8    9 1
    17    9   10 2
    18    9   29 1
    19   10   11 1
    20   10   30 1
    21   11   12 2
    22   12   13 1
    23   13   31 1
    24   13   32 1
    25   14   19 ar
    26   14   15 ar
    27   15   16 ar
    28   15   33 1
    29   16   17 ar
    30   16   34 1
    31   17   18 ar
    32   17   35 1
    33   18   19 ar
    34   18   36 1
    35   19   20 1
    36   20   21 1
    37   21   23 1
    38   21   22 1
    39   21   37 1
    40   22   23 1
    41   22   38 1
    42   22   39 1
    43   23   40 1
    44   23   41 1

@<TRIPOS>MOLECULE
 ZINC000096459890
   39    41     0     0     0



@<TRIPOS>ATOM
      1 O1        -15.1463    18.9064   -17.1447 O.2        1  LIG1  -0.4900
      2 C1        -15.4812    17.7476   -17.0057 C.2        1  LIG1   0.5300
      3 O2        -16.3369    17.1845   -17.8799 O.3        1  LIG1  -0.3300
      4 C2        -16.8184    18.0222   -18.9637 C.3        1  LIG1   0.0700
      5 C3        -17.7725    17.2155   -19.8467 C.3        1  LIG1  -0.1400
      6 C4        -18.2799    18.0984   -20.9887 C.3        1  LIG1   0.0900
      7 N1        -17.1441    18.5595   -21.7910 N.am       1  LIG1  -0.5000
      8 C5        -16.7287    17.8217   -22.8524 C.2        1  LIG1   0.1300
      9 C6        -15.6816    18.2270   -23.6081 C.2        1  LIG1  -0.2300
     10 C7        -15.0144    19.4203   -23.2975 C.2        1  LIG1  -0.0200
     11 C8        -15.4335    20.1604   -22.2311 C.2        1  LIG1  -0.2400
     12 C9        -16.5274    19.7128   -21.4706 C.2        1  LIG1   0.5100
     13 O3        -16.9127    20.3653   -20.5138 O.2        1  LIG1  -0.5500
     14 C10       -14.9435    16.9512   -15.8777 C.ar       1  LIG1   0.1300
     15 C11       -14.0531    17.5534   -14.9768 C.ar       1  LIG1  -0.1200
     16 C12       -13.5504    16.8304   -13.9332 C.ar       1  LIG1  -0.0500
     17 C13       -13.9507    15.4883   -13.7988 C.ar       1  LIG1  -0.0800
     18 C14       -13.4734    14.6869   -12.7490 C.ar       1  LIG1  -0.0800
     19 C15       -13.8824    13.3926   -12.6498 C.ar       1  LIG1  -0.1000
     20 C16       -14.7713    12.8486   -13.5781 C.ar       1  LIG1  -0.0200
     21 Cl1       -15.2683    11.1932   -13.4161 Cl         1  LIG1  -0.0500
     22 C17       -15.2551    13.5952   -14.6082 C.ar       1  LIG1  -0.0700
     23 C18       -14.8552    14.9383   -14.7451 C.ar       1  LIG1   0.1300
     24 N2        -15.3174    15.6932   -15.7408 N.ar       1  LIG1  -0.4100
     25 H1        -17.3450    18.8828   -18.5513 H          1  LIG1   0.0800
     26 H2        -15.9733    18.3653   -19.5607 H          1  LIG1   0.0800
     27 H3        -17.2459    16.3549   -20.2591 H          1  LIG1   0.0800
     28 H4        -18.6176    16.8726   -19.2498 H          1  LIG1   0.0900
     29 H5        -18.9596    17.5237   -21.6178 H          1  LIG1   0.1100
     30 H6        -18.8065    18.9590   -20.5762 H          1  LIG1   0.1000
     31 H7        -17.2390    16.9017   -23.0961 H          1  LIG1   0.1600
     32 H8        -15.3599    17.6314   -24.4497 H          1  LIG1   0.1500
     33 H9        -14.1779    19.7498   -23.8959 H          1  LIG1   0.1400
     34 H10       -14.9324    21.0824   -21.9762 H          1  LIG1   0.1500
     35 H11       -13.7655    18.5861   -15.1084 H          1  LIG1   0.1600
     36 H12       -12.8634    17.2770   -13.2296 H          1  LIG1   0.1600
     37 H13       -12.7849    15.0956   -12.0240 H          1  LIG1   0.1500
     38 H14       -13.5138    12.7780   -11.8419 H          1  LIG1   0.1400
     39 H15       -15.9422    13.1590   -15.3181 H          1  LIG1   0.1500
@<TRIPOS>BOND
     1    1    2 2
     2    2    3 1
     3    2   14 1
     4    3    4 1
     5    4    5 1
     6    4   25 1
     7    4   26 1
     8    5    6 1
     9    5   27 1
    10    5   28 1
    11    6    7 1
    12    6   29 1
    13    6   30 1
    14    7   12 am
    15    7    8 1
    16    8    9 2
    17    8   31 1
    18    9   10 1
    19    9   32 1
    20   10   11 2
    21   10   33 1
    22   11   12 1
    23   11   34 1
    24   12   13 2
    25   14   24 ar
    26   14   15 ar
    27   15   16 ar
    28   15   35 1
    29   16   17 ar
    30   16   36 1
    31   17   23 ar
    32   17   18 ar
    33   18   19 ar
    34   18   37 1
    35   19   20 ar
    36   19   38 1
    37   20   21 1
    38   20   22 ar
    39   22   23 ar
    40   22   39 1
    41   23   24 ar

@<TRIPOS>MOLECULE
 ZINC000012442563
   46    48     0     0     0



@<TRIPOS>ATOM
      1 C1        -19.6993    21.2947   -22.1518 C.3        1  LIG1   0.0800
      2 N1        -18.3454    20.7376   -22.2063 N.am       1  LIG1  -0.6200
      3 C2        -17.1989    21.5591   -21.8102 C.3        1  LIG1   0.0800
      4 C3        -18.1547    19.4695   -22.6208 C.2        1  LIG1   0.5200
      5 O1        -19.0148    18.6349   -22.4351 O.2        1  LIG1  -0.5300
      6 C4        -16.8725    19.0884   -23.3151 C.3        1  LIG1  -0.1400
      7 C5        -16.1619    17.9977   -22.5111 C.3        1  LIG1  -0.0100
      8 C6        -15.8510    18.5138   -21.1297 C.2        1  LIG1   0.1600
      9 N2        -14.7661    19.1362   -20.7653 N.2        1  LIG1  -0.2800
     10 N3        -14.8424    19.4307   -19.5151 N.2        1  LIG1  -0.2800
     11 C7        -15.9784    19.0061   -19.0394 C.2        1  LIG1   0.1700
     12 C8        -16.4596    19.1495   -17.6185 C.3        1  LIG1   0.0200
     13 C9        -16.0171    17.9537   -16.8152 C.ar       1  LIG1  -0.1000
     14 C10       -16.8286    16.8361   -16.7394 C.ar       1  LIG1  -0.0900
     15 C11       -16.4284    15.7382   -16.0050 C.ar       1  LIG1  -0.1100
     16 C12       -15.2044    15.7569   -15.3394 C.ar       1  LIG1  -0.0300
     17 C13       -14.7685    14.5792   -14.5488 C.ar       1  LIG1  -0.0500
     18 C14       -13.9548    14.7500   -13.4307 C.ar       1  LIG1  -0.1100
     19 C15       -13.5522    13.6512   -12.6990 C.ar       1  LIG1  -0.1200
     20 C16       -13.9552    12.3822   -13.0739 C.ar       1  LIG1  -0.1200
     21 C17       -14.7630    12.2068   -14.1829 C.ar       1  LIG1  -0.1200
     22 C18       -15.1761    13.2991   -14.9185 C.ar       1  LIG1  -0.1100
     23 C19       -14.3910    16.8854   -15.4193 C.ar       1  LIG1  -0.1100
     24 C20       -14.7986    17.9757   -16.1611 C.ar       1  LIG1  -0.1000
     25 O2        -16.6444    18.4214   -20.0493 O.3        1  LIG1  -0.2200
     26 H1        -20.4155    20.5418   -22.4812 H          1  LIG1   0.0600
     27 H2        -19.9291    21.5915   -21.1284 H          1  LIG1   0.0800
     28 H3        -19.7607    22.1650   -22.8051 H          1  LIG1   0.0700
     29 H4        -16.2822    20.9790   -21.9165 H          1  LIG1   0.0800
     30 H5        -17.1464    22.4414   -22.4479 H          1  LIG1   0.0600
     31 H6        -17.3148    21.8680   -20.7713 H          1  LIG1   0.0600
     32 H7        -17.0973    18.7152   -24.3141 H          1  LIG1   0.1000
     33 H8        -16.2265    19.9631   -23.3908 H          1  LIG1   0.1100
     34 H9        -16.8078    17.1231   -22.4353 H          1  LIG1   0.1200
     35 H10       -15.2345    17.7221   -23.0131 H          1  LIG1   0.1100
     36 H11       -16.0394    20.0559   -17.1824 H          1  LIG1   0.1100
     37 H12       -17.5477    19.2119   -17.6080 H          1  LIG1   0.1200
     38 H13       -17.7773    16.8228   -17.2554 H          1  LIG1   0.1300
     39 H14       -17.0630    14.8662   -15.9462 H          1  LIG1   0.1300
     40 H15       -13.6394    15.7404   -13.1374 H          1  LIG1   0.1300
     41 H16       -12.9212    13.7824   -11.8324 H          1  LIG1   0.1300
     42 H17       -13.6376    11.5250   -12.4987 H          1  LIG1   0.1200
     43 H18       -15.0744    11.2137   -14.4713 H          1  LIG1   0.1300
     44 H19       -15.8068    13.1612   -15.7843 H          1  LIG1   0.1300
     45 H20       -13.4414    16.9053   -14.9050 H          1  LIG1   0.1300
     46 H21       -14.1687    18.8507   -16.2240 H          1  LIG1   0.1300
@<TRIPOS>BOND
     1    1    2 1
     2    1   26 1
     3    1   27 1
     4    1   28 1
     5    2    3 1
     6    2    4 am
     7    3   29 1
     8    3   30 1
     9    3   31 1
    10    4    5 2
    11    4    6 1
    12    6    7 1
    13    6   32 1
    14    6   33 1
    15    7    8 1
    16    7   34 1
    17    7   35 1
    18    8   25 1
    19    8    9 2
    20    9   10 1
    21   10   11 2
    22   11   12 1
    23   11   25 1
    24   12   13 1
    25   12   36 1
    26   12   37 1
    27   13   24 ar
    28   13   14 ar
    29   14   15 ar
    30   14   38 1
    31   15   16 ar
    32   15   39 1
    33   16   17 1
    34   16   23 ar
    35   17   22 ar
    36   17   18 ar
    37   18   19 ar
    38   18   40 1
    39   19   20 ar
    40   19   41 1
    41   20   21 ar
    42   20   42 1
    43   21   22 ar
    44   21   43 1
    45   22   44 1
    46   23   24 ar
    47   23   45 1
    48   24   46 1
